Networks/SemiUrban/SemiUrbanMV_LinesLaterals2.txt
New Line.MVFeeder2.1    Bus1=Main_Busbar    Bus2=2_1    Length=10   units=m Linecode=Line_185
New Line.MVFeeder2.2    Bus1=2_1    Bus2=2_2    Length=10   units=m Linecode=Line_185
New Line.MVFeeder2.3    Bus1=2_2    Bus2=2_3    Length=10   units=m Linecode=Line_185
New Line.MVFeeder2.4    Bus1=2_3    Bus2=2_4    Length=10   units=m Linecode=Line_185
New Line.MVFeeder2.5    Bus1=2_4    Bus2=2_5    Length=10   units=m Linecode=Line_185
New Line.MVFeeder2.6    Bus1=2_5    Bus2=2_6    Length=10   units=m Linecode=Line_185
New Line.MVFeeder2.7    Bus1=2_6    Bus2=2_7    Length=10   units=m Linecode=Line_185
New Line.MVFeeder2.8    Bus1=2_7    Bus2=2_8    Length=10   units=m Linecode=Line_185
New Line.MVFeeder2.9    Bus1=2_8    Bus2=2_9    Length=10   units=m Linecode=Line_185
New Line.MVFeeder2.10   Bus1=2_9    Bus2=2_10   Length=10   units=m Linecode=Line_185
New Line.MVFeeder2.11   Bus1=2_10   Bus2=2_11   Length=10   units=m Linecode=Line_185
New Line.MVFeeder2.12   Bus1=2_11   Bus2=2_12   Length=10   units=m Linecode=Line_185
New Line.MVFeeder2.13   Bus1=2_12   Bus2=2_13   Length=10   units=m Linecode=Line_185
New Line.MVFeeder2.14   Bus1=2_13   Bus2=2_14   Length=10   units=m Linecode=Line_185
New Line.MVFeeder2.15   Bus1=2_14   Bus2=2_15   Length=10   units=m Linecode=Line_185
New Line.MVFeeder2.16   Bus1=2_15   Bus2=2_16   Length=10   units=m Linecode=Line_185
New Line.MVFeeder2.17   Bus1=2_16   Bus2=2_17   Length=10   units=m Linecode=Line_185
New Line.MVFeeder2.18   Bus1=2_17   Bus2=2_18   Length=10   units=m Linecode=Line_185
New Line.MVFeeder2.19   Bus1=2_18   Bus2=2_19   Length=10   units=m Linecode=Line_185
New Line.MVFeeder2.20   Bus1=2_19   Bus2=2_20   Length=10   units=m Linecode=Line_185
New Line.MVFeeder2.21   Bus1=2_20   Bus2=2_21   Length=10   units=m Linecode=Line_185
New Line.MVFeeder2.22   Bus1=2_21   Bus2=2_22   Length=10   units=m Linecode=Line_185
New Line.MVFeeder2.23   Bus1=2_22   Bus2=2_23   Length=10   units=m Linecode=Line_185
New Line.MVFeeder2.24   Bus1=2_23   Bus2=2_24   Length=10   units=m Linecode=Line_185
New Line.MVFeeder2.25   Bus1=2_24   Bus2=2_25   Length=10   units=m Linecode=Line_185
New Line.MVFeeder2.26   Bus1=2_25   Bus2=2_26   Length=10   units=m Linecode=Line_185
New Line.MVFeeder2.27   Bus1=2_26   Bus2=2_27   Length=10   units=m Linecode=Line_185
New Line.MVFeeder2.28   Bus1=2_27   Bus2=2_28   Length=10   units=m Linecode=Line_185
New Line.MVFeeder2.29   Bus1=2_28   Bus2=2_29   Length=10   units=m Linecode=Line_185
New Line.MVFeeder2.30   Bus1=2_29   Bus2=2_30   Length=10   units=m Linecode=Line_185
                        
New Line.MVFeeder2.31   Bus1=2_30   Bus2=2_31   Length=10   units=m Linecode=Line_185
                        
                     
New Line.MVLateral2_start_1 Bus1=2_30   Bus2=2_32   Length=10   units=m Linecode=Line_95
New Line.MVLateral2.33  Bus1=2_32   Bus2=2_33   Length=10   units=m Linecode=Line_95
New Line.MVLateral2.34  Bus1=2_33   Bus2=2_34   Length=10   units=m Linecode=Line_95
New Line.MVLateral2.35  Bus1=2_34   Bus2=2_35   Length=10   units=m Linecode=Line_95
New Line.MVLateral2.36  Bus1=2_35   Bus2=2_36   Length=10   units=m Linecode=Line_95
New Line.MVLateral2.37  Bus1=2_36   Bus2=2_37   Length=10   units=m Linecode=Line_95
New Line.MVLateral2.38  Bus1=2_37   Bus2=2_38   Length=10   units=m Linecode=Line_95
New Line.MVLateral2.39  Bus1=2_38   Bus2=2_39   Length=10   units=m Linecode=Line_95
New Line.MVLateral2.40  Bus1=2_39   Bus2=2_40   Length=10   units=m Linecode=Line_95
New Line.MVLateral2.41  Bus1=2_40   Bus2=2_41   Length=10   units=m Linecode=Line_95
New Line.MVLateral2.42  Bus1=2_41   Bus2=2_42   Length=10   units=m Linecode=Line_95
New Line.MVLateral2.43  Bus1=2_42   Bus2=2_43   Length=10   units=m Linecode=Line_95
New Line.MVLateral2.44  Bus1=2_43   Bus2=2_44   Length=10   units=m Linecode=Line_95
New Line.MVLateral2.45  Bus1=2_44   Bus2=2_45   Length=10   units=m Linecode=Line_95
New Line.MVLateral2.46  Bus1=2_45   Bus2=2_46   Length=10   units=m Linecode=Line_95
New Line.MVLateral2.47  Bus1=2_46   Bus2=2_47   Length=10   units=m Linecode=Line_95
New Line.MVLateral2.48  Bus1=2_47   Bus2=2_48   Length=10   units=m Linecode=Line_95
New Line.MVLateral2.49  Bus1=2_48   Bus2=2_49   Length=10   units=m Linecode=Line_95
New Line.MVLateral2.50  Bus1=2_49   Bus2=2_50   Length=10   units=m Linecode=Line_95
New Line.MVLateral2.51  Bus1=2_50   Bus2=2_51   Length=10   units=m Linecode=Line_95
New Line.MVLateral2.52  Bus1=2_51   Bus2=2_52   Length=10   units=m Linecode=Line_95
New Line.MVLateral2.53  Bus1=2_52   Bus2=2_53   Length=10   units=m Linecode=Line_95
New Line.MVLateral2.54  Bus1=2_53   Bus2=2_54   Length=10   units=m Linecode=Line_95
New Line.MVLateral2.55  Bus1=2_54   Bus2=2_55   Length=10   units=m Linecode=Line_95
New Line.MVLateral2.56  Bus1=2_55   Bus2=2_56   Length=10   units=m Linecode=Line_95
New Line.MVLateral2.57  Bus1=2_56   Bus2=2_57   Length=10   units=m Linecode=Line_95
New Line.MVLateral2.58  Bus1=2_57   Bus2=2_58   Length=10   units=m Linecode=Line_95
New Line.MVLateral2.59  Bus1=2_58   Bus2=2_59   Length=10   units=m Linecode=Line_95
New Line.MVLateral2.60  Bus1=2_59   Bus2=2_60   Length=10   units=m Linecode=Line_95
New Line.MVLateral2.61  Bus1=2_60   Bus2=2_61   Length=10   units=m Linecode=Line_95
New Line.MVLateral2.62  Bus1=2_61   Bus2=2_62   Length=10   units=m Linecode=Line_95
New Line.MVLateral2.63  Bus1=2_62   Bus2=2_63   Length=10   units=m Linecode=Line_95
New Line.MVLateral2.64  Bus1=2_63   Bus2=2_64   Length=10   units=m Linecode=Line_95
New Line.MVLateral2.65  Bus1=2_64   Bus2=2_65   Length=10   units=m Linecode=Line_95
New Line.MVLateral2.66  Bus1=2_65   Bus2=2_66   Length=10   units=m Linecode=Line_95
New Line.MVLateral2.67  Bus1=2_66   Bus2=2_67   Length=10   units=m Linecode=Line_95
New Line.MVLateral2.68  Bus1=2_67   Bus2=2_68   Length=10   units=m Linecode=Line_95
New Line.MVLateral2.69  Bus1=2_68   Bus2=2_69   Length=10   units=m Linecode=Line_95
New Line.MVLateral2.70  Bus1=2_69   Bus2=2_70   Length=10   units=m Linecode=Line_95
New Line.MVLateral2.71  Bus1=2_70   Bus2=2_71   Length=10   units=m Linecode=Line_95
New Line.MVLateral2.72  Bus1=2_71   Bus2=2_72   Length=10   units=m Linecode=Line_95
New Line.MVLateral2.73  Bus1=2_72   Bus2=2_73   Length=10   units=m Linecode=Line_95
New Line.MVLateral2.74  Bus1=2_73   Bus2=2_74   Length=10   units=m Linecode=Line_95
New Line.MVLateral2.75  Bus1=2_74   Bus2=2_75   Length=10   units=m Linecode=Line_95
New Line.MVLateral2.76  Bus1=2_75   Bus2=2_76   Length=10   units=m Linecode=Line_95
New Line.MVLateral2.77  Bus1=2_76   Bus2=2_77   Length=10   units=m Linecode=Line_95
New Line.MVLateral2.78  Bus1=2_77   Bus2=2_78   Length=10   units=m Linecode=Line_95
New Line.MVLateral2.79  Bus1=2_78   Bus2=2_79   Length=10   units=m Linecode=Line_95
New Line.MVLateral2.80  Bus1=2_79   Bus2=2_80   Length=10   units=m Linecode=Line_95
New Line.MVLateral2.81  Bus1=2_80   Bus2=2_81   Length=10   units=m Linecode=Line_95
New Line.MVLateral2.82  Bus1=2_81   Bus2=2_82   Length=10   units=m Linecode=Line_95
New Line.MVLateral2.83  Bus1=2_82   Bus2=2_83   Length=10   units=m Linecode=Line_95
New Line.MVLateral2.84  Bus1=2_83   Bus2=2_84   Length=10   units=m Linecode=Line_95
New Line.MVLateral2.85  Bus1=2_84   Bus2=2_85   Length=10   units=m Linecode=Line_95
                        
New Line.MVLateral2.86  Bus1=2_85   Bus2=2_86   Length=10   units=m Linecode=Line_95
New Line.MVLateral2.87  Bus1=2_86   Bus2=2_87   Length=10   units=m Linecode=Line_95
New Line.MVLateral2.88  Bus1=2_87   Bus2=2_88   Length=10   units=m Linecode=Line_95
New Line.MVLateral2.89  Bus1=2_88   Bus2=2_89   Length=10   units=m Linecode=Line_95
New Line.MVLateral2.90  Bus1=2_89   Bus2=2_90   Length=10   units=m Linecode=Line_95
New Line.MVLateral2.91  Bus1=2_90   Bus2=2_91   Length=10   units=m Linecode=Line_95
New Line.MVLateral2.92  Bus1=2_91   Bus2=2_92   Length=10   units=m Linecode=Line_95
New Line.MVLateral2.93  Bus1=2_92   Bus2=2_93   Length=10   units=m Linecode=Line_95
New Line.MVLateral2.94  Bus1=2_93   Bus2=2_94   Length=10   units=m Linecode=Line_95
New Line.MVLateral2.95  Bus1=2_94   Bus2=2_95   Length=10   units=m Linecode=Line_95
New Line.MVLateral2.96  Bus1=2_95   Bus2=2_96   Length=10   units=m Linecode=Line_95
New Line.MVLateral2.97  Bus1=2_96   Bus2=2_97   Length=10   units=m Linecode=Line_95
New Line.MVLateral2.98  Bus1=2_97   Bus2=2_98   Length=10   units=m Linecode=Line_95
New Line.MVLateral2.99  Bus1=2_98   Bus2=2_99   Length=10   units=m Linecode=Line_95
New Line.MVLateral2.100 Bus1=2_99   Bus2=2_100  Length=10   units=m Linecode=Line_95
New Line.MVLateral2.101 Bus1=2_100  Bus2=2_101  Length=10   units=m Linecode=Line_95
New Line.MVLateral2.102 Bus1=2_101  Bus2=2_102  Length=10   units=m Linecode=Line_95
New Line.MVLateral2.103 Bus1=2_102  Bus2=2_103  Length=10   units=m Linecode=Line_95
New Line.MVLateral2.104 Bus1=2_103  Bus2=2_104  Length=10   units=m Linecode=Line_95
New Line.MVLateral2.105 Bus1=2_104  Bus2=2_105  Length=10   units=m Linecode=Line_95
New Line.MVLateral2.106 Bus1=2_105  Bus2=2_106  Length=10   units=m Linecode=Line_95
New Line.MVLateral2.107 Bus1=2_106  Bus2=2_107  Length=10   units=m Linecode=Line_95
New Line.MVLateral2.108 Bus1=2_107  Bus2=2_108  Length=10   units=m Linecode=Line_95
New Line.MVLateral2.109 Bus1=2_108  Bus2=2_109  Length=10   units=m Linecode=Line_95
New Line.MVLateral2.110 Bus1=2_109  Bus2=2_110  Length=10   units=m Linecode=Line_95
New Line.MVLateral2.111 Bus1=2_110  Bus2=2_111  Length=10   units=m Linecode=Line_95
New Line.MVLateral2.112 Bus1=2_111  Bus2=2_112  Length=10   units=m Linecode=Line_95
New Line.MVLateral2.113 Bus1=2_112  Bus2=2_113  Length=10   units=m Linecode=Line_95
New Line.MVLateral2.114 Bus1=2_113  Bus2=2_114  Length=10   units=m Linecode=Line_95
New Line.MVLateral2.115 Bus1=2_114  Bus2=2_115  Length=10   units=m Linecode=Line_95
New Line.MVLateral2.116 Bus1=2_115  Bus2=2_116  Length=10   units=m Linecode=Line_95
New Line.MVLateral2.117 Bus1=2_116  Bus2=2_117  Length=10   units=m Linecode=Line_95
New Line.MVLateral2.118 Bus1=2_117  Bus2=2_118  Length=10   units=m Linecode=Line_95
New Line.MVLateral2.119 Bus1=2_118  Bus2=2_119  Length=10   units=m Linecode=Line_95
New Line.MVLateral2.120 Bus1=2_119  Bus2=2_120  Length=10   units=m Linecode=Line_95
New Line.MVLateral2.121 Bus1=2_120  Bus2=2_121  Length=10   units=m Linecode=Line_95
New Line.MVLateral2.122 Bus1=2_121  Bus2=2_122  Length=10   units=m Linecode=Line_95
                        
New Line.MVLateral2.123 Bus1=2_122  Bus2=2_123  Length=10   units=m Linecode=Line_95
New Line.MVLateral2.124 Bus1=2_123  Bus2=2_124  Length=10   units=m Linecode=Line_95
New Line.MVLateral2.125 Bus1=2_124  Bus2=2_125  Length=10   units=m Linecode=Line_95
New Line.MVLateral2.126 Bus1=2_125  Bus2=2_126  Length=10   units=m Linecode=Line_95
New Line.MVLateral2.127 Bus1=2_126  Bus2=2_127  Length=10   units=m Linecode=Line_95
New Line.MVLateral2.128 Bus1=2_127  Bus2=2_128  Length=10   units=m Linecode=Line_95
New Line.MVLateral2.129 Bus1=2_128  Bus2=2_129  Length=10   units=m Linecode=Line_95
New Line.MVLateral2.130 Bus1=2_129  Bus2=2_130  Length=10   units=m Linecode=Line_95
                        
New Line.MVLateral2.131 Bus1=2_130  Bus2=2_131  Length=10   units=m Linecode=Line_95
New Line.MVLateral2.132 Bus1=2_131  Bus2=2_132  Length=10   units=m Linecode=Line_95
New Line.MVLateral2.133 Bus1=2_132  Bus2=2_133  Length=10   units=m Linecode=Line_95
New Line.MVLateral2.134 Bus1=2_133  Bus2=2_134  Length=10   units=m Linecode=Line_95
New Line.MVLateral2.135 Bus1=2_134  Bus2=2_135  Length=10   units=m Linecode=Line_95
New Line.MVLateral2.136 Bus1=2_135  Bus2=2_136  Length=10   units=m Linecode=Line_95
New Line.MVLateral2.137 Bus1=2_136  Bus2=2_137  Length=10   units=m Linecode=Line_95
New Line.MVLateral2.138 Bus1=2_137  Bus2=2_138  Length=10   units=m Linecode=Line_95
New Line.MVLateral2.139 Bus1=2_138  Bus2=2_139  Length=10   units=m Linecode=Line_95
New Line.MVLateral2.140 Bus1=2_139  Bus2=2_140  Length=10   units=m Linecode=Line_95
New Line.MVLateral2.141 Bus1=2_140  Bus2=2_141  Length=10   units=m Linecode=Line_95
New Line.MVLateral2.142 Bus1=2_141  Bus2=2_142  Length=10   units=m Linecode=Line_95
New Line.MVLateral2.143 Bus1=2_142  Bus2=2_143  Length=10   units=m Linecode=Line_95
New Line.MVLateral2.144 Bus1=2_143  Bus2=2_144  Length=10   units=m Linecode=Line_95
New Line.MVLateral2.145 Bus1=2_144  Bus2=2_145  Length=10   units=m Linecode=Line_95
New Line.MVLateral2.146 Bus1=2_145  Bus2=2_146  Length=10   units=m Linecode=Line_95
New Line.MVLateral2.147 Bus1=2_146  Bus2=2_147  Length=10   units=m Linecode=Line_95
New Line.MVLateral2.148 Bus1=2_147  Bus2=2_148  Length=10   units=m Linecode=Line_95
New Line.MVLateral2.149 Bus1=2_148  Bus2=2_149  Length=10   units=m Linecode=Line_95
New Line.MVLateral2.150 Bus1=2_149  Bus2=2_150  Length=10   units=m Linecode=Line_95
New Line.MVLateral2.151 Bus1=2_150  Bus2=2_151  Length=10   units=m Linecode=Line_95
New Line.MVLateral2.152 Bus1=2_151  Bus2=2_152  Length=10   units=m Linecode=Line_95
New Line.MVLateral2.153 Bus1=2_152  Bus2=2_153  Length=10   units=m Linecode=Line_95
New Line.MVLateral2.154 Bus1=2_153  Bus2=2_154  Length=10   units=m Linecode=Line_95
New Line.MVLateral2.155 Bus1=2_154  Bus2=2_155  Length=10   units=m Linecode=Line_95
New Line.MVLateral2.156 Bus1=2_155  Bus2=2_156  Length=10   units=m Linecode=Line_95
                        
New Line.MVLateral2.157 Bus1=2_156  Bus2=2_157  Length=10   units=m Linecode=Line_95
New Line.MVLateral2.158 Bus1=2_157  Bus2=2_158  Length=10   units=m Linecode=Line_95
New Line.MVLateral2.159 Bus1=2_158  Bus2=2_159  Length=10   units=m Linecode=Line_95
New Line.MVLateral2.160 Bus1=2_159  Bus2=2_160  Length=10   units=m Linecode=Line_95
New Line.MVLateral2.161 Bus1=2_160  Bus2=2_161  Length=10   units=m Linecode=Line_95
New Line.MVLateral2_end_1   Bus1=2_161  Bus2=2_162  Length=10   units=m Linecode=Line_95
                        
New Line.MVFeeder2.163  Bus1=2_31   Bus2=2_163  Length=10   units=m Linecode=Line_185
New Line.MVFeeder2.164  Bus1=2_163  Bus2=2_164  Length=10   units=m Linecode=Line_185
New Line.MVFeeder2.165  Bus1=2_164  Bus2=2_165  Length=10   units=m Linecode=Line_185
New Line.MVFeeder2.166  Bus1=2_165  Bus2=2_166  Length=10   units=m Linecode=Line_185
New Line.MVFeeder2.167  Bus1=2_166  Bus2=2_167  Length=10   units=m Linecode=Line_185
New Line.MVFeeder2.168  Bus1=2_167  Bus2=2_168  Length=10   units=m Linecode=Line_185
New Line.MVFeeder2.169  Bus1=2_168  Bus2=2_169  Length=10   units=m Linecode=Line_185
New Line.MVFeeder2.170  Bus1=2_169  Bus2=2_170  Length=10   units=m Linecode=Line_185
New Line.MVFeeder2.171  Bus1=2_170  Bus2=2_171  Length=10   units=m Linecode=Line_185
New Line.MVFeeder2.172  Bus1=2_171  Bus2=2_172  Length=10   units=m Linecode=Line_185
New Line.MVFeeder2.173  Bus1=2_172  Bus2=2_173  Length=10   units=m Linecode=Line_185
New Line.MVFeeder2.174  Bus1=2_173  Bus2=2_174  Length=10   units=m Linecode=Line_185
New Line.MVFeeder2.175  Bus1=2_174  Bus2=2_175  Length=10   units=m Linecode=Line_185
New Line.MVFeeder2.176  Bus1=2_175  Bus2=2_176  Length=10   units=m Linecode=Line_185
New Line.MVFeeder2.177  Bus1=2_176  Bus2=2_177  Length=10   units=m Linecode=Line_185
New Line.MVFeeder2.178  Bus1=2_177  Bus2=2_178  Length=10   units=m Linecode=Line_185
New Line.MVFeeder2.179  Bus1=2_178  Bus2=2_179  Length=10   units=m Linecode=Line_185
New Line.MVFeeder2.180  Bus1=2_179  Bus2=2_180  Length=10   units=m Linecode=Line_185
New Line.MVFeeder2.181  Bus1=2_180  Bus2=2_181  Length=10   units=m Linecode=Line_185
New Line.MVFeeder2.182  Bus1=2_181  Bus2=2_182  Length=10   units=m Linecode=Line_185
New Line.MVFeeder2.183  Bus1=2_182  Bus2=2_183  Length=10   units=m Linecode=Line_185
New Line.MVFeeder2.184  Bus1=2_183  Bus2=2_184  Length=10   units=m Linecode=Line_185
New Line.MVFeeder2.185  Bus1=2_184  Bus2=2_185  Length=10   units=m Linecode=Line_185
New Line.MVFeeder2.186  Bus1=2_185  Bus2=2_186  Length=10   units=m Linecode=Line_185
New Line.MVFeeder2.187  Bus1=2_186  Bus2=2_187  Length=10   units=m Linecode=Line_185
New Line.MVFeeder2.188  Bus1=2_187  Bus2=2_188  Length=10   units=m Linecode=Line_185
New Line.MVFeeder2.189  Bus1=2_188  Bus2=2_189  Length=10   units=m Linecode=Line_185
New Line.MVFeeder2.190  Bus1=2_189  Bus2=2_190  Length=10   units=m Linecode=Line_185
New Line.MVFeeder2.191  Bus1=2_190  Bus2=2_191  Length=10   units=m Linecode=Line_185
New Line.MVFeeder2.192  Bus1=2_191  Bus2=2_192  Length=10   units=m Linecode=Line_185
New Line.MVFeeder2.193  Bus1=2_192  Bus2=2_193  Length=10   units=m Linecode=Line_185
New Line.MVFeeder2.194  Bus1=2_193  Bus2=2_194  Length=10   units=m Linecode=Line_185
New Line.MVFeeder2.195  Bus1=2_194  Bus2=2_195  Length=10   units=m Linecode=Line_185
New Line.MVFeeder2.196  Bus1=2_195  Bus2=2_196  Length=10   units=m Linecode=Line_185
New Line.MVFeeder2.197  Bus1=2_196  Bus2=2_197  Length=10   units=m Linecode=Line_185
New Line.MVFeeder2.198  Bus1=2_197  Bus2=2_198  Length=10   units=m Linecode=Line_185
New Line.MVFeeder2.199  Bus1=2_198  Bus2=2_199  Length=10   units=m Linecode=Line_185
New Line.MVFeeder2.200  Bus1=2_199  Bus2=2_200  Length=10   units=m Linecode=Line_185
New Line.MVFeeder2.201  Bus1=2_200  Bus2=2_201  Length=10   units=m Linecode=Line_185
New Line.MVFeeder2.202  Bus1=2_201  Bus2=2_202  Length=10   units=m Linecode=Line_185
New Line.MVFeeder2.203  Bus1=2_202  Bus2=2_203  Length=10   units=m Linecode=Line_185
New Line.MVFeeder2.204  Bus1=2_203  Bus2=2_204  Length=10   units=m Linecode=Line_185
New Line.MVFeeder2.205  Bus1=2_204  Bus2=2_205  Length=10   units=m Linecode=Line_185
New Line.MVFeeder2.206  Bus1=2_205  Bus2=2_206  Length=10   units=m Linecode=Line_185
New Line.MVFeeder2.207  Bus1=2_206  Bus2=2_207  Length=10   units=m Linecode=Line_185
New Line.MVFeeder2.208  Bus1=2_207  Bus2=2_208  Length=10   units=m Linecode=Line_185
New Line.MVFeeder2.209  Bus1=2_208  Bus2=2_209  Length=10   units=m Linecode=Line_185
New Line.MVFeeder2.210  Bus1=2_209  Bus2=2_210  Length=10   units=m Linecode=Line_185
New Line.MVFeeder2.211  Bus1=2_210  Bus2=2_211  Length=10   units=m Linecode=Line_185
New Line.MVFeeder2.212  Bus1=2_211  Bus2=2_212  Length=10   units=m Linecode=Line_185
New Line.MVFeeder2.213  Bus1=2_212  Bus2=2_213  Length=10   units=m Linecode=Line_185
New Line.MVFeeder2.214  Bus1=2_213  Bus2=2_214  Length=10   units=m Linecode=Line_185
New Line.MVFeeder2.215  Bus1=2_214  Bus2=2_215  Length=10   units=m Linecode=Line_185
New Line.MVFeeder2.216  Bus1=2_215  Bus2=2_216  Length=10   units=m Linecode=Line_185
New Line.MVFeeder2.217  Bus1=2_216  Bus2=2_217  Length=10   units=m Linecode=Line_185
New Line.MVFeeder2.218  Bus1=2_217  Bus2=2_218  Length=10   units=m Linecode=Line_185
New Line.MVFeeder2.219  Bus1=2_218  Bus2=2_219  Length=10   units=m Linecode=Line_185
New Line.MVFeeder2.220  Bus1=2_219  Bus2=2_220  Length=10   units=m Linecode=Line_185
New Line.MVFeeder2.221  Bus1=2_220  Bus2=2_221  Length=10   units=m Linecode=Line_185
New Line.MVFeeder2.222  Bus1=2_221  Bus2=2_222  Length=10   units=m Linecode=Line_185
New Line.MVFeeder2.223  Bus1=2_222  Bus2=2_223  Length=10   units=m Linecode=Line_185
                        
                        
New Line.MVLateral2_start_2 Bus1=2_222  Bus2=2_224  Length=10   units=m Linecode=Line_95
New Line.MVLateral2.225 Bus1=2_224  Bus2=2_225  Length=10   units=m Linecode=Line_95
New Line.MVLateral2.226 Bus1=2_225  Bus2=2_226  Length=10   units=m Linecode=Line_95
New Line.MVLateral2.227 Bus1=2_226  Bus2=2_227  Length=10   units=m Linecode=Line_95
New Line.MVLateral2.228 Bus1=2_227  Bus2=2_228  Length=10   units=m Linecode=Line_95
New Line.MVLateral2.229 Bus1=2_228  Bus2=2_229  Length=10   units=m Linecode=Line_95
New Line.MVLateral2.230 Bus1=2_229  Bus2=2_230  Length=10   units=m Linecode=Line_95
New Line.MVLateral2.231 Bus1=2_230  Bus2=2_231  Length=10   units=m Linecode=Line_95
New Line.MVLateral2.232 Bus1=2_231  Bus2=2_232  Length=10   units=m Linecode=Line_95
New Line.MVLateral2.233 Bus1=2_232  Bus2=2_233  Length=10   units=m Linecode=Line_95
New Line.MVLateral2.234 Bus1=2_233  Bus2=2_234  Length=10   units=m Linecode=Line_95
New Line.MVLateral2.235 Bus1=2_234  Bus2=2_235  Length=10   units=m Linecode=Line_95
New Line.MVLateral2.236 Bus1=2_235  Bus2=2_236  Length=10   units=m Linecode=Line_95
New Line.MVLateral2.237 Bus1=2_236  Bus2=2_237  Length=10   units=m Linecode=Line_95
New Line.MVLateral2.238 Bus1=2_237  Bus2=2_238  Length=10   units=m Linecode=Line_95
New Line.MVLateral2.239 Bus1=2_238  Bus2=2_239  Length=10   units=m Linecode=Line_95
New Line.MVLateral2.240 Bus1=2_239  Bus2=2_240  Length=10   units=m Linecode=Line_95
New Line.MVLateral2.241 Bus1=2_240  Bus2=2_241  Length=10   units=m Linecode=Line_95
New Line.MVLateral2.242 Bus1=2_241  Bus2=2_242  Length=10   units=m Linecode=Line_95
New Line.MVLateral2.243 Bus1=2_242  Bus2=2_243  Length=10   units=m Linecode=Line_95
New Line.MVLateral2.244 Bus1=2_243  Bus2=2_244  Length=10   units=m Linecode=Line_95
New Line.MVLateral2.245 Bus1=2_244  Bus2=2_245  Length=10   units=m Linecode=Line_95
New Line.MVLateral2.246 Bus1=2_245  Bus2=2_246  Length=10   units=m Linecode=Line_95
New Line.MVLateral2.247 Bus1=2_246  Bus2=2_247  Length=10   units=m Linecode=Line_95
New Line.MVLateral2.248 Bus1=2_247  Bus2=2_248  Length=10   units=m Linecode=Line_95
New Line.MVLateral2.249 Bus1=2_248  Bus2=2_249  Length=10   units=m Linecode=Line_95
New Line.MVLateral2.250 Bus1=2_249  Bus2=2_250  Length=10   units=m Linecode=Line_95
New Line.MVLateral2.251 Bus1=2_250  Bus2=2_251  Length=10   units=m Linecode=Line_95
New Line.MVLateral2.252 Bus1=2_251  Bus2=2_252  Length=10   units=m Linecode=Line_95
New Line.MVLateral2.253 Bus1=2_252  Bus2=2_253  Length=10   units=m Linecode=Line_95
New Line.MVLateral2.254 Bus1=2_253  Bus2=2_254  Length=10   units=m Linecode=Line_95
New Line.MVLateral2.255 Bus1=2_254  Bus2=2_255  Length=10   units=m Linecode=Line_95
New Line.MVLateral2.256 Bus1=2_255  Bus2=2_256  Length=10   units=m Linecode=Line_95
New Line.MVLateral2.257 Bus1=2_256  Bus2=2_257  Length=10   units=m Linecode=Line_95
New Line.MVLateral2.258 Bus1=2_257  Bus2=2_258  Length=10   units=m Linecode=Line_95
New Line.MVLateral2.259 Bus1=2_258  Bus2=2_259  Length=10   units=m Linecode=Line_95
New Line.MVLateral2.260 Bus1=2_259  Bus2=2_260  Length=10   units=m Linecode=Line_95
New Line.MVLateral2.261 Bus1=2_260  Bus2=2_261  Length=10   units=m Linecode=Line_95
New Line.MVLateral2.262 Bus1=2_261  Bus2=2_262  Length=10   units=m Linecode=Line_95
New Line.MVLateral2.263 Bus1=2_262  Bus2=2_263  Length=10   units=m Linecode=Line_95
New Line.MVLateral2.264 Bus1=2_263  Bus2=2_264  Length=10   units=m Linecode=Line_95
New Line.MVLateral2.265 Bus1=2_264  Bus2=2_265  Length=10   units=m Linecode=Line_95
New Line.MVLateral2.266 Bus1=2_265  Bus2=2_266  Length=10   units=m Linecode=Line_95
New Line.MVLateral2.267 Bus1=2_266  Bus2=2_267  Length=10   units=m Linecode=Line_95
New Line.MVLateral2.268 Bus1=2_267  Bus2=2_268  Length=10   units=m Linecode=Line_95
New Line.MVLateral2.269 Bus1=2_268  Bus2=2_269  Length=10   units=m Linecode=Line_95
New Line.MVLateral2.270 Bus1=2_269  Bus2=2_270  Length=10   units=m Linecode=Line_95
New Line.MVLateral2.271 Bus1=2_270  Bus2=2_271  Length=10   units=m Linecode=Line_95
New Line.MVLateral2.272 Bus1=2_271  Bus2=2_272  Length=10   units=m Linecode=Line_95
New Line.MVLateral2.273 Bus1=2_272  Bus2=2_273  Length=10   units=m Linecode=Line_95
New Line.MVLateral2.274 Bus1=2_273  Bus2=2_274  Length=10   units=m Linecode=Line_95
New Line.MVLateral2.275 Bus1=2_274  Bus2=2_275  Length=10   units=m Linecode=Line_95
New Line.MVLateral2.276 Bus1=2_275  Bus2=2_276  Length=10   units=m Linecode=Line_95
New Line.MVLateral2.277 Bus1=2_276  Bus2=2_277  Length=10   units=m Linecode=Line_95
New Line.MVLateral2.278 Bus1=2_277  Bus2=2_278  Length=10   units=m Linecode=Line_95
New Line.MVLateral2.279 Bus1=2_278  Bus2=2_279  Length=10   units=m Linecode=Line_95
New Line.MVLateral2.280 Bus1=2_279  Bus2=2_280  Length=10   units=m Linecode=Line_95
New Line.MVLateral2.281 Bus1=2_280  Bus2=2_281  Length=10   units=m Linecode=Line_95
New Line.MVLateral2.282 Bus1=2_281  Bus2=2_282  Length=10   units=m Linecode=Line_95
New Line.MVLateral2.283 Bus1=2_282  Bus2=2_283  Length=10   units=m Linecode=Line_95
New Line.MVLateral2.284 Bus1=2_283  Bus2=2_284  Length=10   units=m Linecode=Line_95
New Line.MVLateral2.285 Bus1=2_284  Bus2=2_285  Length=10   units=m Linecode=Line_95
New Line.MVLateral2.286 Bus1=2_285  Bus2=2_286  Length=10   units=m Linecode=Line_95
New Line.MVLateral2.287 Bus1=2_286  Bus2=2_287  Length=10   units=m Linecode=Line_95
New Line.MVLateral2.288 Bus1=2_287  Bus2=2_288  Length=10   units=m Linecode=Line_95
New Line.MVLateral2.289 Bus1=2_288  Bus2=2_289  Length=10   units=m Linecode=Line_95
New Line.MVLateral2.290 Bus1=2_289  Bus2=2_290  Length=10   units=m Linecode=Line_95
New Line.MVLateral2.291 Bus1=2_290  Bus2=2_291  Length=10   units=m Linecode=Line_95
New Line.MVLateral2.292 Bus1=2_291  Bus2=2_292  Length=10   units=m Linecode=Line_95
New Line.MVLateral2.293 Bus1=2_292  Bus2=2_293  Length=10   units=m Linecode=Line_95
New Line.MVLateral2.294 Bus1=2_293  Bus2=2_294  Length=10   units=m Linecode=Line_95
New Line.MVLateral2.295 Bus1=2_294  Bus2=2_295  Length=10   units=m Linecode=Line_95
New Line.MVLateral2.296 Bus1=2_295  Bus2=2_296  Length=10   units=m Linecode=Line_95
New Line.MVLateral2.297 Bus1=2_296  Bus2=2_297  Length=10   units=m Linecode=Line_95
New Line.MVLateral2.298 Bus1=2_297  Bus2=2_298  Length=10   units=m Linecode=Line_95
New Line.MVLateral2.299 Bus1=2_298  Bus2=2_299  Length=10   units=m Linecode=Line_95
New Line.MVLateral2.300 Bus1=2_299  Bus2=2_300  Length=10   units=m Linecode=Line_95
New Line.MVLateral2.301 Bus1=2_300  Bus2=2_301  Length=10   units=m Linecode=Line_95
New Line.MVLateral2.302 Bus1=2_301  Bus2=2_302  Length=10   units=m Linecode=Line_95
New Line.MVLateral2.303 Bus1=2_302  Bus2=2_303  Length=10   units=m Linecode=Line_95
New Line.MVLateral2.304 Bus1=2_303  Bus2=2_304  Length=10   units=m Linecode=Line_95
New Line.MVLateral2.305 Bus1=2_304  Bus2=2_305  Length=10   units=m Linecode=Line_95
New Line.MVLateral2.306 Bus1=2_305  Bus2=2_306  Length=10   units=m Linecode=Line_95
New Line.MVLateral2.307 Bus1=2_306  Bus2=2_307  Length=10   units=m Linecode=Line_95
New Line.MVLateral2.308 Bus1=2_307  Bus2=2_308  Length=10   units=m Linecode=Line_95
New Line.MVLateral2.309 Bus1=2_308  Bus2=2_309  Length=10   units=m Linecode=Line_95
New Line.MVLateral2.310 Bus1=2_309  Bus2=2_310  Length=10   units=m Linecode=Line_95
New Line.MVLateral2.311 Bus1=2_310  Bus2=2_311  Length=10   units=m Linecode=Line_95
New Line.MVLateral2.312 Bus1=2_311  Bus2=2_312  Length=10   units=m Linecode=Line_95
New Line.MVLateral2.313 Bus1=2_312  Bus2=2_313  Length=10   units=m Linecode=Line_95
New Line.MVLateral2.314 Bus1=2_313  Bus2=2_314  Length=10   units=m Linecode=Line_95
New Line.MVLateral2.315 Bus1=2_314  Bus2=2_315  Length=10   units=m Linecode=Line_95
New Line.MVLateral2.316 Bus1=2_315  Bus2=2_316  Length=10   units=m Linecode=Line_95
New Line.MVLateral2.317 Bus1=2_316  Bus2=2_317  Length=10   units=m Linecode=Line_95
New Line.MVLateral2.318 Bus1=2_317  Bus2=2_318  Length=10   units=m Linecode=Line_95
New Line.MVLateral2.319 Bus1=2_318  Bus2=2_319  Length=10   units=m Linecode=Line_95
New Line.MVLateral2.320 Bus1=2_319  Bus2=2_320  Length=10   units=m Linecode=Line_95
New Line.MVLateral2.321 Bus1=2_320  Bus2=2_321  Length=10   units=m Linecode=Line_95
New Line.MVLateral2.322 Bus1=2_321  Bus2=2_322  Length=10   units=m Linecode=Line_95
New Line.MVLateral2.323 Bus1=2_322  Bus2=2_323  Length=10   units=m Linecode=Line_95
New Line.MVLateral2.324 Bus1=2_323  Bus2=2_324  Length=10   units=m Linecode=Line_95
New Line.MVLateral2.325 Bus1=2_324  Bus2=2_325  Length=10   units=m Linecode=Line_95
New Line.MVLateral2.326 Bus1=2_325  Bus2=2_326  Length=10   units=m Linecode=Line_95
New Line.MVLateral2.327 Bus1=2_326  Bus2=2_327  Length=10   units=m Linecode=Line_95
New Line.MVLateral2.328 Bus1=2_327  Bus2=2_328  Length=10   units=m Linecode=Line_95
New Line.MVLateral2.329 Bus1=2_328  Bus2=2_329  Length=10   units=m Linecode=Line_95
New Line.MVLateral2.330 Bus1=2_329  Bus2=2_330  Length=10   units=m Linecode=Line_95
New Line.MVLateral2.331 Bus1=2_330  Bus2=2_331  Length=10   units=m Linecode=Line_95
New Line.MVLateral2.332 Bus1=2_331  Bus2=2_332  Length=10   units=m Linecode=Line_95
New Line.MVLateral2.333 Bus1=2_332  Bus2=2_333  Length=10   units=m Linecode=Line_95
New Line.MVLateral2.334 Bus1=2_333  Bus2=2_334  Length=10   units=m Linecode=Line_95
New Line.MVLateral2.335 Bus1=2_334  Bus2=2_335  Length=10   units=m Linecode=Line_95
New Line.MVLateral2.336 Bus1=2_335  Bus2=2_336  Length=10   units=m Linecode=Line_95
New Line.MVLateral2.337 Bus1=2_336  Bus2=2_337  Length=10   units=m Linecode=Line_95
New Line.MVLateral2.338 Bus1=2_337  Bus2=2_338  Length=10   units=m Linecode=Line_95
New Line.MVLateral2.339 Bus1=2_338  Bus2=2_339  Length=10   units=m Linecode=Line_95
New Line.MVLateral2.340 Bus1=2_339  Bus2=2_340  Length=10   units=m Linecode=Line_95
New Line.MVLateral2.341 Bus1=2_340  Bus2=2_341  Length=10   units=m Linecode=Line_95
New Line.MVLateral2.342 Bus1=2_341  Bus2=2_342  Length=10   units=m Linecode=Line_95
New Line.MVLateral2.343 Bus1=2_342  Bus2=2_343  Length=10   units=m Linecode=Line_95
New Line.MVLateral2.344 Bus1=2_343  Bus2=2_344  Length=10   units=m Linecode=Line_95
New Line.MVLateral2.345 Bus1=2_344  Bus2=2_345  Length=10   units=m Linecode=Line_95
New Line.MVLateral2.346 Bus1=2_345  Bus2=2_346  Length=10   units=m Linecode=Line_95
New Line.MVLateral2.347 Bus1=2_346  Bus2=2_347  Length=10   units=m Linecode=Line_95
New Line.MVLateral2.348 Bus1=2_347  Bus2=2_348  Length=10   units=m Linecode=Line_95
New Line.MVLateral2.349 Bus1=2_348  Bus2=2_349  Length=10   units=m Linecode=Line_95
New Line.MVLateral2.350 Bus1=2_349  Bus2=2_350  Length=10   units=m Linecode=Line_95
New Line.MVLateral2.351 Bus1=2_350  Bus2=2_351  Length=10   units=m Linecode=Line_95
...