Networks/SemiUrban/SemiUrbanMV_LinesLaterals3.txt
New Line.MVFeeder3.1    Bus1=Main_Busbar    Bus2=3_1    Length=10   units=m Linecode=Line_185
New Line.MVFeeder3.2    Bus1=3_1    Bus2=3_2    Length=10   units=m Linecode=Line_185
New Line.MVFeeder3.3    Bus1=3_2    Bus2=3_3    Length=10   units=m Linecode=Line_185
New Line.MVFeeder3.4    Bus1=3_3    Bus2=3_4    Length=10   units=m Linecode=Line_185
New Line.MVFeeder3.5    Bus1=3_4    Bus2=3_5    Length=10   units=m Linecode=Line_185
New Line.MVFeeder3.6    Bus1=3_5    Bus2=3_6    Length=10   units=m Linecode=Line_185
New Line.MVFeeder3.7    Bus1=3_6    Bus2=3_7    Length=10   units=m Linecode=Line_185
New Line.MVFeeder3.8    Bus1=3_7    Bus2=3_8    Length=10   units=m Linecode=Line_185
New Line.MVFeeder3.9    Bus1=3_8    Bus2=3_9    Length=10   units=m Linecode=Line_185
New Line.MVFeeder3.10   Bus1=3_9    Bus2=3_10   Length=10   units=m Linecode=Line_185
New Line.MVFeeder3.11   Bus1=3_10   Bus2=3_11   Length=10   units=m Linecode=Line_185
New Line.MVFeeder3.12   Bus1=3_11   Bus2=3_12   Length=10   units=m Linecode=Line_185
New Line.MVFeeder3.13   Bus1=3_12   Bus2=3_13   Length=10   units=m Linecode=Line_185
New Line.MVFeeder3.14   Bus1=3_13   Bus2=3_14   Length=10   units=m Linecode=Line_185
New Line.MVFeeder3.15   Bus1=3_14   Bus2=3_15   Length=10   units=m Linecode=Line_185
New Line.MVFeeder3.16   Bus1=3_15   Bus2=3_16   Length=10   units=m Linecode=Line_185
New Line.MVFeeder3.17   Bus1=3_16   Bus2=3_17   Length=10   units=m Linecode=Line_185
New Line.MVFeeder3.18   Bus1=3_17   Bus2=3_18   Length=10   units=m Linecode=Line_185
New Line.MVFeeder3.19   Bus1=3_18   Bus2=3_19   Length=10   units=m Linecode=Line_185
New Line.MVFeeder3.20   Bus1=3_19   Bus2=3_20   Length=10   units=m Linecode=Line_185
New Line.MVFeeder3.21   Bus1=3_20   Bus2=3_21   Length=10   units=m Linecode=Line_185
New Line.MVFeeder3.22   Bus1=3_21   Bus2=3_22   Length=10   units=m Linecode=Line_185
New Line.MVFeeder3.23   Bus1=3_22   Bus2=3_23   Length=10   units=m Linecode=Line_185
New Line.MVFeeder3.24   Bus1=3_23   Bus2=3_24   Length=10   units=m Linecode=Line_185
New Line.MVFeeder3.25   Bus1=3_24   Bus2=3_25   Length=10   units=m Linecode=Line_185
New Line.MVFeeder3.26   Bus1=3_25   Bus2=3_26   Length=10   units=m Linecode=Line_185
New Line.MVFeeder3.27   Bus1=3_26   Bus2=3_27   Length=10   units=m Linecode=Line_185
New Line.MVFeeder3.28   Bus1=3_27   Bus2=3_28   Length=10   units=m Linecode=Line_185
New Line.MVFeeder3.29   Bus1=3_28   Bus2=3_29   Length=10   units=m Linecode=Line_185
New Line.MVFeeder3.30   Bus1=3_29   Bus2=3_30   Length=10   units=m Linecode=Line_185
                        
New Line.MVFeeder3.31   Bus1=3_30   Bus2=3_31   Length=10   units=m Linecode=Line_185
                        
                     
New Line.MVLateral3_start_1 Bus1=3_30   Bus2=3_32   Length=10   units=m Linecode=Line_95
New Line.MVLateral3.33  Bus1=3_32   Bus2=3_33   Length=10   units=m Linecode=Line_95
New Line.MVLateral3.34  Bus1=3_33   Bus2=3_34   Length=10   units=m Linecode=Line_95
New Line.MVLateral3.35  Bus1=3_34   Bus2=3_35   Length=10   units=m Linecode=Line_95
New Line.MVLateral3.36  Bus1=3_35   Bus2=3_36   Length=10   units=m Linecode=Line_95
New Line.MVLateral3.37  Bus1=3_36   Bus2=3_37   Length=10   units=m Linecode=Line_95
New Line.MVLateral3.38  Bus1=3_37   Bus2=3_38   Length=10   units=m Linecode=Line_95
New Line.MVLateral3.39  Bus1=3_38   Bus2=3_39   Length=10   units=m Linecode=Line_95
New Line.MVLateral3.40  Bus1=3_39   Bus2=3_40   Length=10   units=m Linecode=Line_95
New Line.MVLateral3.41  Bus1=3_40   Bus2=3_41   Length=10   units=m Linecode=Line_95
New Line.MVLateral3.42  Bus1=3_41   Bus2=3_42   Length=10   units=m Linecode=Line_95
New Line.MVLateral3.43  Bus1=3_42   Bus2=3_43   Length=10   units=m Linecode=Line_95
New Line.MVLateral3.44  Bus1=3_43   Bus2=3_44   Length=10   units=m Linecode=Line_95
New Line.MVLateral3.45  Bus1=3_44   Bus2=3_45   Length=10   units=m Linecode=Line_95
New Line.MVLateral3.46  Bus1=3_45   Bus2=3_46   Length=10   units=m Linecode=Line_95
New Line.MVLateral3.47  Bus1=3_46   Bus2=3_47   Length=10   units=m Linecode=Line_95
New Line.MVLateral3.48  Bus1=3_47   Bus2=3_48   Length=10   units=m Linecode=Line_95
New Line.MVLateral3.49  Bus1=3_48   Bus2=3_49   Length=10   units=m Linecode=Line_95
New Line.MVLateral3.50  Bus1=3_49   Bus2=3_50   Length=10   units=m Linecode=Line_95
New Line.MVLateral3.51  Bus1=3_50   Bus2=3_51   Length=10   units=m Linecode=Line_95
New Line.MVLateral3.52  Bus1=3_51   Bus2=3_52   Length=10   units=m Linecode=Line_95
New Line.MVLateral3.53  Bus1=3_52   Bus2=3_53   Length=10   units=m Linecode=Line_95
New Line.MVLateral3.54  Bus1=3_53   Bus2=3_54   Length=10   units=m Linecode=Line_95
New Line.MVLateral3.55  Bus1=3_54   Bus2=3_55   Length=10   units=m Linecode=Line_95
New Line.MVLateral3.56  Bus1=3_55   Bus2=3_56   Length=10   units=m Linecode=Line_95
New Line.MVLateral3.57  Bus1=3_56   Bus2=3_57   Length=10   units=m Linecode=Line_95
...